577223
  -OEChem-05112508143D

 35 36  0     0  0  0  0  0  0999 V2000
    0.0110   -1.7477   -0.5489 S   0  0  0  0  0  0  0  0  0  0  0  0
    0.5607   -3.0620   -0.2509 O   0  0  0  0  0  0  0  0  0  0  0  0
   -0.5086   -1.4820   -1.8817 O   0  0  0  0  0  0  0  0  0  0  0  0
   -2.9365    1.4684   -0.4673 O   0  0  0  0  0  0  0  0  0  0  0  0
   -1.1911   -1.3848    0.6280 N   0  0  0  0  0  0  0  0  0  0  0  0
   -1.8116    0.6527   -0.4918 N   0  0  0  0  0  0  0  0  0  0  0  0
    1.2582   -0.5648   -0.1964 C   0  0  0  0  0  0  0  0  0  0  0  0
    1.8660   -0.5446    1.0591 C   0  0  0  0  0  0  0  0  0  0  0  0
    1.6417    0.3559   -1.1717 C   0  0  0  0  0  0  0  0  0  0  0  0
    3.2405    1.3165    0.3641 C   0  0  0  0  0  0  0  0  0  0  0  0
    2.8570    0.3960    1.3394 C   0  0  0  0  0  0  0  0  0  0  0  0
    2.6329    1.2965   -0.8914 C   0  0  0  0  0  0  0  0  0  0  0  0
    1.4810   -1.5145    2.1286 C   0  0  0  0  0  0  0  0  0  0  0  0
    1.0138    0.3644   -2.5275 C   0  0  0  0  0  0  0  0  0  0  0  0
    4.3004    2.3222    0.6635 C   0  0  0  0  0  0  0  0  0  0  0  0
   -2.1075   -0.3106    0.3556 C   0  0  0  0  0  0  0  0  0  0  0  0
   -3.3540   -0.2014    0.9500 C   0  0  0  0  0  0  0  0  0  0  0  0
   -3.8477    0.9494    0.3948 C   0  0  0  0  0  0  0  0  0  0  0  0
   -5.1061    1.6903    0.5443 C   0  0  0  0  0  0  0  0  0  0  0  0
    3.3356    0.4164    2.3157 H   0  0  0  0  0  0  0  0  0  0  0  0
    2.9383    2.0165   -1.6470 H   0  0  0  0  0  0  0  0  0  0  0  0
   -1.4578   -2.0936    1.3221 H   0  0  0  0  0  0  0  0  0  0  0  0
    0.4619   -1.3486    2.4830 H   0  0  0  0  0  0  0  0  0  0  0  0
    1.6258   -2.5521    1.8211 H   0  0  0  0  0  0  0  0  0  0  0  0
    2.1208   -1.3874    3.0112 H   0  0  0  0  0  0  0  0  0  0  0  0
    1.1970   -0.5682   -3.0705 H   0  0  0  0  0  0  0  0  0  0  0  0
   -0.0369    0.6621   -2.5062 H   0  0  0  0  0  0  0  0  0  0  0  0
    1.4940    1.1298   -3.1528 H   0  0  0  0  0  0  0  0  0  0  0  0
    4.1360    3.2487    0.1027 H   0  0  0  0  0  0  0  0  0  0  0  0
    4.3044    2.5884    1.7260 H   0  0  0  0  0  0  0  0  0  0  0  0
    5.2838    1.9215    0.3986 H   0  0  0  0  0  0  0  0  0  0  0  0
   -3.8379   -0.8445    1.6700 H   0  0  0  0  0  0  0  0  0  0  0  0
   -5.7730    1.1967    1.2580 H   0  0  0  0  0  0  0  0  0  0  0  0
   -4.9146    2.7053    0.9060 H   0  0  0  0  0  0  0  0  0  0  0  0
   -5.6282    1.7596   -0.4150 H   0  0  0  0  0  0  0  0  0  0  0  0
  1  2  2  0  0  0  0
  1  3  2  0  0  0  0
  1  5  1  0  0  0  0
  1  7  1  0  0  0  0
  4  6  1  0  0  0  0
  4 18  1  0  0  0  0
  5 16  1  0  0  0  0
  5 22  1  0  0  0  0
  6 16  2  0  0  0  0
  7  8  2  0  0  0  0
  7  9  1  0  0  0  0
  8 11  1  0  0  0  0
  8 13  1  0  0  0  0
  9 12  2  0  0  0  0
  9 14  1  0  0  0  0
 10 11  2  0  0  0  0
 10 12  1  0  0  0  0
 10 15  1  0  0  0  0
 11 20  1  0  0  0  0
 12 21  1  0  0  0  0
 13 23  1  0  0  0  0
 13 24  1  0  0  0  0
 13 25  1  0  0  0  0
 14 26  1  0  0  0  0
 14 27  1  0  0  0  0
 14 28  1  0  0  0  0
 15 29  1  0  0  0  0
 15 30  1  0  0  0  0
 15 31  1  0  0  0  0
 16 17  1  0  0  0  0
 17 18  2  0  0  0  0
 17 32  1  0  0  0  0
 18 19  1  0  0  0  0
 19 33  1  0  0  0  0
 19 34  1  0  0  0  0
 19 35  1  0  0  0  0
M  END
> <PUBCHEM_COMPOUND_CID>
577223

> <PUBCHEM_CONFORMER_RMSD>
0.6

> <PUBCHEM_CONFORMER_DIVERSEORDER>
21
29
1
7
4
17
25
28
10
12
6
2
9
27
13
26
22
19
16
18
20
15
3
23
11
14
24
8
5

> <PUBCHEM_MMFF94_PARTIAL_CHARGES>
23
1 1.45
10 -0.14
11 -0.15
12 -0.15
13 0.14
14 0.14
15 0.14
16 0.43
17 -0.15
18 -0.04
19 0.18
2 -0.65
20 0.15
21 0.15
22 0.42
3 -0.65
32 0.15
4 -0.02
5 -0.7
6 -0.41
7 -0.01
8 -0.14
9 -0.14

> <PUBCHEM_EFFECTIVE_ROTOR_COUNT>
3

> <PUBCHEM_PHARMACOPHORE_FEATURES>
6
1 2 acceptor
1 3 acceptor
1 5 donor
1 6 acceptor
5 4 6 16 17 18 rings
6 7 8 9 10 11 12 rings

> <PUBCHEM_HEAVY_ATOM_COUNT>
19

> <PUBCHEM_ATOM_DEF_STEREO_COUNT>
0

> <PUBCHEM_ATOM_UDEF_STEREO_COUNT>
0

> <PUBCHEM_BOND_DEF_STEREO_COUNT>
0

> <PUBCHEM_BOND_UDEF_STEREO_COUNT>
0

> <PUBCHEM_ISOTOPIC_ATOM_COUNT>
0

> <PUBCHEM_COMPONENT_COUNT>
1

> <PUBCHEM_CACTVS_TAUTO_COUNT>
2

> <PUBCHEM_CONFORMER_ID>
0008CEC700000015

> <PUBCHEM_MMFF94_ENERGY>
39.3321

> <PUBCHEM_FEATURE_SELFOVERLAP>
30.468

> <PUBCHEM_SHAPE_FINGERPRINT>
10382601 240 17458893895449548872
10498660 4 18059860566981379705
10948715 1 18343302612779873018
11471102 22 15864613081666631676
11640471 11 18340470257683376774
11961588 58 17345455162929181120
12138202 97 17131272501272482470
12251169 10 17095242535779619201
12363563 72 11602819103469529049
12400797 245 16950555554528769660
12400797 292 12391505412491107042
12616999 72 15985099674651710437
12633257 1 15864352488293874601
12788726 201 17103428601828497418
12892183 10 17821723948779988137
13134695 92 17837774426296499007
13965767 371 18188206507482961133
14178342 30 17240769518466234843
14251764 38 17903340530008209853
14252887 29 10665240283935712991
14787075 74 15298066882961015959
15209294 21 18116703213867213344
15534591 1 18198054975061887850
15664445 248 13253640129737177539
15775835 57 18409448123910052368
16945 1 17095521820286287134
18186145 218 17417547863860598053
19862831 5 12535355601053281105
20361792 2 11097854099004472731
20559304 39 16588320323581938983
20715895 44 17534048676579158317
20723712 36 17603873338129936804
21452121 99 15050862313777875774
21731228 192 18260829336254331218
21731516 1 11314309399682277839
21756936 100 17607542511759194252
23419403 2 16124430720400374846
23559900 14 17897746275101669159
238 59 15339120168892956876
25 1 15984557679453277518
2838139 119 17916299618808200440
3060560 45 15123495982925621248
3323516 105 14620505787739048095
3797600 57 16955105488168390289
427121 178 18335430066353946888
568465 68 14490455513640240200
6442390 28 18058747925654696127
7097593 13 17385719179880016963
7364860 26 18266745675137397802
7808743 9 18269836595839522744
960060 61 11167642267237041905
9999458 23 18340770330137848990

> <PUBCHEM_SHAPE_MULTIPOLES>
367.29
7.41
2.35
1.81
6.41
0.77
-0.6
-6.84
2.87
-0.58
0.13
-1.03
0.35
-0.22

> <PUBCHEM_SHAPE_SELFOVERLAP>
768.215

> <PUBCHEM_SHAPE_VOLUME>
210.4

> <PUBCHEM_COORDINATE_TYPE>
2
5
10

$$$$
