678193
  -OEChem-05112508163D

 42 43  0     0  0  0  0  0  0999 V2000
    1.5837    1.4657    0.0443 S   0  0  0  0  0  0  0  0  0  0  0  0
    4.3782    0.5930   -0.8453 O   0  0  0  0  0  0  0  0  0  0  0  0
    1.8935    2.4733    1.0517 O   0  0  0  0  0  0  0  0  0  0  0  0
    1.8662    1.7615   -1.3550 O   0  0  0  0  0  0  0  0  0  0  0  0
   -4.7034   -0.7260   -1.5590 O   0  0  0  0  0  0  0  0  0  0  0  0
    2.3706    0.0003    0.4939 N   0  0  0  0  0  0  0  0  0  0  0  0
   -4.1614    0.0897    0.5726 N   0  0  0  0  0  0  0  0  0  0  0  0
    5.6583    0.0987   -1.0648 N   0  0  0  0  0  0  0  0  0  0  0  0
   -0.1074    1.0604    0.1996 C   0  0  0  0  0  0  0  0  0  0  0  0
   -6.4200   -0.6513    0.1352 C   0  0  0  0  0  0  0  0  0  0  0  0
   -2.7904    0.4178    0.4463 C   0  0  0  0  0  0  0  0  0  0  0  0
    3.7186   -0.2112    0.0392 C   0  0  0  0  0  0  0  0  0  0  0  0
   -0.7642    1.2619    1.4136 C   0  0  0  0  0  0  0  0  0  0  0  0
   -0.8018    0.5353   -0.8902 C   0  0  0  0  0  0  0  0  0  0  0  0
    4.5554   -1.2411    0.4102 C   0  0  0  0  0  0  0  0  0  0  0  0
   -5.0017   -0.4390   -0.4032 C   0  0  0  0  0  0  0  0  0  0  0  0
   -2.1153    0.9382    1.5379 C   0  0  0  0  0  0  0  0  0  0  0  0
   -2.1530    0.2117   -0.7659 C   0  0  0  0  0  0  0  0  0  0  0  0
   -7.4616   -0.4756   -0.9678 C   0  0  0  0  0  0  0  0  0  0  0  0
   -6.5400   -2.0384    0.7639 C   0  0  0  0  0  0  0  0  0  0  0  0
    5.7409   -0.9967   -0.3044 C   0  0  0  0  0  0  0  0  0  0  0  0
    4.2694   -2.3444    1.3427 C   0  0  0  0  0  0  0  0  0  0  0  0
    6.9853   -1.7839   -0.2955 C   0  0  0  0  0  0  0  0  0  0  0  0
   -6.6234    0.1033    0.9055 H   0  0  0  0  0  0  0  0  0  0  0  0
    1.8470   -0.7998    0.8673 H   0  0  0  0  0  0  0  0  0  0  0  0
   -0.2421    1.6628    2.2779 H   0  0  0  0  0  0  0  0  0  0  0  0
   -0.3064    0.3649   -1.8422 H   0  0  0  0  0  0  0  0  0  0  0  0
   -4.5604    0.2635    1.4925 H   0  0  0  0  0  0  0  0  0  0  0  0
   -2.6169    1.0976    2.4883 H   0  0  0  0  0  0  0  0  0  0  0  0
   -2.6186   -0.1904   -1.6532 H   0  0  0  0  0  0  0  0  0  0  0  0
   -7.3465   -1.2302   -1.7537 H   0  0  0  0  0  0  0  0  0  0  0  0
   -7.3645    0.5090   -1.4382 H   0  0  0  0  0  0  0  0  0  0  0  0
   -8.4756   -0.5598   -0.5631 H   0  0  0  0  0  0  0  0  0  0  0  0
   -6.3391   -2.8254    0.0285 H   0  0  0  0  0  0  0  0  0  0  0  0
   -7.5430   -2.1982    1.1724 H   0  0  0  0  0  0  0  0  0  0  0  0
   -5.8188   -2.1604    1.5793 H   0  0  0  0  0  0  0  0  0  0  0  0
    5.1787   -2.8822    1.6289 H   0  0  0  0  0  0  0  0  0  0  0  0
    3.8075   -1.9689    2.2619 H   0  0  0  0  0  0  0  0  0  0  0  0
    3.5831   -3.0637    0.8841 H   0  0  0  0  0  0  0  0  0  0  0  0
    6.7832   -2.8277   -0.5572 H   0  0  0  0  0  0  0  0  0  0  0  0
    7.7179   -1.3978   -1.0122 H   0  0  0  0  0  0  0  0  0  0  0  0
    7.4457   -1.7621    0.6976 H   0  0  0  0  0  0  0  0  0  0  0  0
  1  3  2  0  0  0  0
  1  4  2  0  0  0  0
  1  6  1  0  0  0  0
  1  9  1  0  0  0  0
  2  8  1  0  0  0  0
  2 12  1  0  0  0  0
  5 16  2  0  0  0  0
  6 12  1  0  0  0  0
  6 25  1  0  0  0  0
  7 11  1  0  0  0  0
  7 16  1  0  0  0  0
  7 28  1  0  0  0  0
  8 21  2  0  0  0  0
  9 13  2  0  0  0  0
  9 14  1  0  0  0  0
 10 16  1  0  0  0  0
 10 19  1  0  0  0  0
 10 20  1  0  0  0  0
 10 24  1  0  0  0  0
 11 17  2  0  0  0  0
 11 18  1  0  0  0  0
 12 15  2  0  0  0  0
 13 17  1  0  0  0  0
 13 26  1  0  0  0  0
 14 18  2  0  0  0  0
 14 27  1  0  0  0  0
 15 21  1  0  0  0  0
 15 22  1  0  0  0  0
 17 29  1  0  0  0  0
 18 30  1  0  0  0  0
 19 31  1  0  0  0  0
 19 32  1  0  0  0  0
 19 33  1  0  0  0  0
 20 34  1  0  0  0  0
 20 35  1  0  0  0  0
 20 36  1  0  0  0  0
 21 23  1  0  0  0  0
 22 37  1  0  0  0  0
 22 38  1  0  0  0  0
 22 39  1  0  0  0  0
 23 40  1  0  0  0  0
 23 41  1  0  0  0  0
 23 42  1  0  0  0  0
M  END
> <PUBCHEM_COMPOUND_CID>
678193

> <PUBCHEM_CONFORMER_RMSD>
0.8

> <PUBCHEM_CONFORMER_DIVERSEORDER>
3
36
9
18
43
14
22
6
37
45
44
42
20
51
40
52
47
7
11
41
23
2
17
29
4
50
21
38
13
25
39
30
31
8
1
10
16
5
32
49
48
46
35
34
33
19
26
12
27
24
15
28

> <PUBCHEM_MMFF94_PARTIAL_CHARGES>
27
1 1.45
10 0.06
11 0.12
12 0.29
13 -0.15
14 -0.15
15 -0.18
16 0.57
17 -0.15
18 -0.15
2 -0.02
21 0.11
22 0.18
23 0.18
25 0.42
26 0.15
27 0.15
28 0.37
29 0.15
3 -0.65
30 0.15
4 -0.65
5 -0.57
6 -0.7
7 -0.55
8 -0.41
9 -0.01

> <PUBCHEM_EFFECTIVE_ROTOR_COUNT>
6

> <PUBCHEM_PHARMACOPHORE_FEATURES>
9
1 3 acceptor
1 4 acceptor
1 5 acceptor
1 6 donor
1 7 donor
1 8 acceptor
3 10 19 20 hydrophobe
5 2 8 12 15 21 rings
6 9 11 13 14 17 18 rings

> <PUBCHEM_HEAVY_ATOM_COUNT>
23

> <PUBCHEM_ATOM_DEF_STEREO_COUNT>
0

> <PUBCHEM_ATOM_UDEF_STEREO_COUNT>
0

> <PUBCHEM_BOND_DEF_STEREO_COUNT>
0

> <PUBCHEM_BOND_UDEF_STEREO_COUNT>
0

> <PUBCHEM_ISOTOPIC_ATOM_COUNT>
0

> <PUBCHEM_COMPONENT_COUNT>
1

> <PUBCHEM_CACTVS_TAUTO_COUNT>
6

> <PUBCHEM_CONFORMER_ID>
000A593100000003

> <PUBCHEM_MMFF94_ENERGY>
35.5343

> <PUBCHEM_FEATURE_SELFOVERLAP>
45.69

> <PUBCHEM_SHAPE_FINGERPRINT>
10 15 13973958814075062730
106641 1 17489581273892484074
10670039 82 14056990603626151583
10753850 27 18412541002942761832
11724838 91 10375863083297905489
12166972 35 18411702101341150436
12236239 1 18343308046019296336
12592606 108 18201715181152917823
12596602 18 17846777386961344354
12616971 3 17346034576067150557
12954195 1 17749944463192703605
13533116 47 18343020038133701568
13540713 4 15648769100242190220
13668630 136 18333734623940637367
13685833 64 18410855468728652416
13862211 1 17632294605896150885
13955234 65 18196649816139464336
14123256 34 18342744009117389238
14341114 176 14261352436514077304
15048467 5 8070029960982576931
15183329 4 17749105561268234089
15188451 53 17561080289251436432
15348495 7 14333116511933589471
15475509 8 16515682187737011181
17134984 74 17821729455318776898
17492 89 18049158866085357186
1813 80 18341345392426669956
18222031 100 18343863299549455456
18335252 114 10809337862941424522
19784866 240 18410860953570863341
200 152 18407761417280803401
20028762 73 17704069603375533182
20281389 69 9151175346185711567
20526848 3 10809345529062415263
20567600 234 12679172847748869523
20567600 247 18261390079043280139
21150785 3 17385726923558163325
21267235 1 18131637764237195334
21344244 78 17346870161611872328
21637258 2 18342452634172203808
21792934 111 16128658549104948001
22061861 79 18040431109991727679
22079108 93 12247677184207922493
221357 26 17385721387509226212
2215653 11 17313106358192288585
22224240 67 13183017415447689109
22956985 138 17556031186546227382
23522609 53 18124066543827102937
23559900 14 18262518229528706209
2767999 5 10881400937125513335
2916195 48 11672068545374469907
3004659 81 18407757053604268443
312425 54 14836405830581398671
3411729 13 16987423408444512320
3472631 163 12252196164350589234
34797466 226 16226053296628498831
351380 3 18272087184493100486
397830 11 11167653348194623805
46194498 28 17168144576470481764
465052 167 18271812340787483646
5104073 3 16557905801013481123
543368 44 11674878892763298367
559249 180 18202284667829947721
59682541 52 17530963583440226630
8863177 126 18266462194970304891

> <PUBCHEM_SHAPE_MULTIPOLES>
438.76
19.19
2
1.32
8.59
0.19
0.08
14.21
-3.73
-1.58
0.6
0.38
-0.15
-0.62

> <PUBCHEM_SHAPE_SELFOVERLAP>
903.333

> <PUBCHEM_SHAPE_VOLUME>
253.3

> <PUBCHEM_COORDINATE_TYPE>
2
5
10

$$$$
