2813558
  -OEChem-05112508163D

 36 37  0     0  0  0  0  0  0999 V2000
   -3.0813   -1.2091    0.0014 O   0  0  0  0  0  0  0  0  0  0  0  0
    1.1754   -1.3619    0.0002 O   0  0  0  0  0  0  0  0  0  0  0  0
   -1.6924   -1.1636    0.0009 N   0  0  0  0  0  0  0  0  0  0  0  0
   -0.0923    0.6097   -0.0018 N   0  0  0  0  0  0  0  0  0  0  0  0
    2.2133    0.7332   -0.0011 N   0  0  0  0  0  0  0  0  0  0  0  0
   -5.0328    0.1948    0.0003 C   0  0  0  0  0  0  0  0  0  0  0  0
   -3.4918    0.0494    0.0000 C   0  0  0  0  0  0  0  0  0  0  0  0
   -5.4867    0.9657   -1.2584 C   0  0  0  0  0  0  0  0  0  0  0  0
   -5.4870    0.9606    1.2620 C   0  0  0  0  0  0  0  0  0  0  0  0
   -5.7744   -1.1599   -0.0024 C   0  0  0  0  0  0  0  0  0  0  0  0
   -2.5345    0.9524   -0.0012 C   0  0  0  0  0  0  0  0  0  0  0  0
   -1.3892    0.1376   -0.0006 C   0  0  0  0  0  0  0  0  0  0  0  0
    1.1108   -0.1368   -0.0012 C   0  0  0  0  0  0  0  0  0  0  0  0
    3.5878    0.3978   -0.0007 C   0  0  0  0  0  0  0  0  0  0  0  0
    4.5326    1.4108    0.0014 C   0  0  0  0  0  0  0  0  0  0  0  0
    3.9602   -0.9364   -0.0016 C   0  0  0  0  0  0  0  0  0  0  0  0
    5.8877    1.0805    0.0022 C   0  0  0  0  0  0  0  0  0  0  0  0
    5.3155   -1.2667   -0.0007 C   0  0  0  0  0  0  0  0  0  0  0  0
    6.2791   -0.2582    0.0012 C   0  0  0  0  0  0  0  0  0  0  0  0
   -6.5763    1.0800   -1.2854 H   0  0  0  0  0  0  0  0  0  0  0  0
   -5.0489    1.9702   -1.2907 H   0  0  0  0  0  0  0  0  0  0  0  0
   -5.1792    0.4444   -2.1725 H   0  0  0  0  0  0  0  0  0  0  0  0
   -5.0487    1.9648    1.2987 H   0  0  0  0  0  0  0  0  0  0  0  0
   -6.5765    1.0750    1.2892 H   0  0  0  0  0  0  0  0  0  0  0  0
   -5.1797    0.4355    2.1741 H   0  0  0  0  0  0  0  0  0  0  0  0
   -6.8618   -1.0215   -0.0025 H   0  0  0  0  0  0  0  0  0  0  0  0
   -5.5161   -1.7530   -0.8876 H   0  0  0  0  0  0  0  0  0  0  0  0
   -5.5169   -1.7562    0.8809 H   0  0  0  0  0  0  0  0  0  0  0  0
   -2.6019    2.0300   -0.0023 H   0  0  0  0  0  0  0  0  0  0  0  0
   -0.0041    1.6226   -0.0030 H   0  0  0  0  0  0  0  0  0  0  0  0
    2.0066    1.7289   -0.0009 H   0  0  0  0  0  0  0  0  0  0  0  0
    4.2385    2.4567    0.0023 H   0  0  0  0  0  0  0  0  0  0  0  0
    3.2794   -1.7741   -0.0034 H   0  0  0  0  0  0  0  0  0  0  0  0
    6.6382    1.8656    0.0037 H   0  0  0  0  0  0  0  0  0  0  0  0
    5.6220   -2.3088   -0.0016 H   0  0  0  0  0  0  0  0  0  0  0  0
    7.3343   -0.5155    0.0019 H   0  0  0  0  0  0  0  0  0  0  0  0
  1  3  1  0  0  0  0
  1  7  1  0  0  0  0
  2 13  2  0  0  0  0
  3 12  2  0  0  0  0
  4 12  1  0  0  0  0
  4 13  1  0  0  0  0
  4 30  1  0  0  0  0
  5 13  1  0  0  0  0
  5 14  1  0  0  0  0
  5 31  1  0  0  0  0
  6  7  1  0  0  0  0
  6  8  1  0  0  0  0
  6  9  1  0  0  0  0
  6 10  1  0  0  0  0
  7 11  2  0  0  0  0
  8 20  1  0  0  0  0
  8 21  1  0  0  0  0
  8 22  1  0  0  0  0
  9 23  1  0  0  0  0
  9 24  1  0  0  0  0
  9 25  1  0  0  0  0
 10 26  1  0  0  0  0
 10 27  1  0  0  0  0
 10 28  1  0  0  0  0
 11 12  1  0  0  0  0
 11 29  1  0  0  0  0
 14 15  2  0  0  0  0
 14 16  1  0  0  0  0
 15 17  1  0  0  0  0
 15 32  1  0  0  0  0
 16 18  2  0  0  0  0
 16 33  1  0  0  0  0
 17 19  2  0  0  0  0
 17 34  1  0  0  0  0
 18 19  1  0  0  0  0
 18 35  1  0  0  0  0
 19 36  1  0  0  0  0
M  END
> <PUBCHEM_COMPOUND_CID>
2813558

> <PUBCHEM_CONFORMER_RMSD>
0.6

> <PUBCHEM_CONFORMER_DIVERSEORDER>
1
7
10
6
8
9
12
5
11
3
4
2

> <PUBCHEM_MMFF94_PARTIAL_CHARGES>
24
1 -0.02
11 -0.15
12 0.35
13 0.69
14 0.12
15 -0.15
16 -0.15
17 -0.15
18 -0.15
19 -0.15
2 -0.57
29 0.15
3 -0.41
30 0.37
31 0.37
32 0.15
33 0.15
34 0.15
35 0.15
36 0.15
4 -0.49
5 -0.55
6 0.18
7 -0.04

> <PUBCHEM_EFFECTIVE_ROTOR_COUNT>
5

> <PUBCHEM_PHARMACOPHORE_FEATURES>
6
1 2 acceptor
1 4 donor
1 5 donor
4 6 8 9 10 hydrophobe
5 1 3 7 11 12 rings
6 14 15 16 17 18 19 rings

> <PUBCHEM_HEAVY_ATOM_COUNT>
19

> <PUBCHEM_ATOM_DEF_STEREO_COUNT>
0

> <PUBCHEM_ATOM_UDEF_STEREO_COUNT>
0

> <PUBCHEM_BOND_DEF_STEREO_COUNT>
0

> <PUBCHEM_BOND_UDEF_STEREO_COUNT>
0

> <PUBCHEM_ISOTOPIC_ATOM_COUNT>
0

> <PUBCHEM_COMPONENT_COUNT>
1

> <PUBCHEM_CACTVS_TAUTO_COUNT>
5

> <PUBCHEM_CONFORMER_ID>
002AEE7600000001

> <PUBCHEM_MMFF94_ENERGY>
50.3498

> <PUBCHEM_FEATURE_SELFOVERLAP>
30.495

> <PUBCHEM_SHAPE_FINGERPRINT>
10968037 39 18409449197804694565
11089746 13 17489582363843739736
11315181 36 18272933843212336977
12091667 2 17530965783033155077
12107183 9 17619914959243898890
12166972 35 18408325513954056605
12236239 1 18273497866337720544
12516196 113 18201998841640124032
13167372 99 18200880578085017536
13288520 33 18410291437424699935
13533116 47 17561084658045969054
1420 363 17603591823997133009
14251732 16 18338517542222897875
14251764 18 18342177786314148019
14251764 46 18410854369227574131
14341114 176 18334862714275344308
14933364 13 18335423469199816500
15183329 4 18413107234187958624
15196674 1 18410856594195057538
15716309 27 18412829105703070891
17834072 33 18273212018978905038
17834076 25 18060420218135731505
17844677 252 18259990365906655253
19427546 62 18190462843710083866
19489759 90 16515402963370655301
200 152 17846498132240021569
20281389 69 18334011700612406509
20645477 70 18341896247731008462
21150785 3 17560792269203645877
21236236 1 18270963436645026265
21267235 1 18411989035901282622
220451 1 18409453591609200222
23081809 10 17775565325443439553
23402539 116 17704069586538145221
23536379 177 18342740706266108538
23559900 14 18342450491068198752
29717793 49 17632584834132398332
300161 21 18411130359984676464
3004659 81 18408041797895129474
3014965 18 18188483571887058722
34797466 226 16630532881565317984
3545911 37 18408886243825292268
4073 2 17968663834453140410
4214541 1 18410573963814115488
42788 4 18410575093258307748
4463277 17 18409730655517341296
5104073 3 18410011078374732402
542803 24 17846780702037870681
59755656 215 18187645761195987238
59755656 520 17458059387103700187
9996256 80 18411981390543328891

> <PUBCHEM_SHAPE_MULTIPOLES>
364.33
17.86
1.39
0.77
3.1
0.13
0
-1.2
-0.01
0.34
0
-0.98
-0.17
0

> <PUBCHEM_SHAPE_SELFOVERLAP>
768.421

> <PUBCHEM_SHAPE_VOLUME>
206.2

> <PUBCHEM_COORDINATE_TYPE>
2
5
10

$$$$
