6470079
  -OEChem-05112508163D

 23 24  0     0  0  0  0  0  0999 V2000
   -4.8673   -1.9721   -0.2219 Br  0  0  0  0  0  0  0  0  0  0  0  0
    0.3762    1.7089    0.2663 S   0  0  0  0  0  0  0  0  0  0  0  0
    0.0593    3.0261   -0.2719 O   0  0  0  0  0  0  0  0  0  0  0  0
    0.8854    1.5941    1.6273 O   0  0  0  0  0  0  0  0  0  0  0  0
    3.3967   -1.5796    0.7371 O   0  0  0  0  0  0  0  0  0  0  0  0
    1.4462    0.9138   -0.8001 N   0  0  0  0  0  0  0  0  0  0  0  0
    2.4257   -0.5877    0.8041 N   0  0  0  0  0  0  0  0  0  0  0  0
   -1.0479    0.7083    0.1331 C   0  0  0  0  0  0  0  0  0  0  0  0
   -1.2196   -0.3782    0.9906 C   0  0  0  0  0  0  0  0  0  0  0  0
   -2.0147    0.9962   -0.8303 C   0  0  0  0  0  0  0  0  0  0  0  0
    2.3377   -0.1242   -0.4379 C   0  0  0  0  0  0  0  0  0  0  0  0
   -2.3582   -1.1771    0.8847 C   0  0  0  0  0  0  0  0  0  0  0  0
   -3.1533    0.1974   -0.9362 C   0  0  0  0  0  0  0  0  0  0  0  0
   -3.3251   -0.8893   -0.0786 C   0  0  0  0  0  0  0  0  0  0  0  0
    3.2056   -0.7624   -1.3286 C   0  0  0  0  0  0  0  0  0  0  0  0
    3.8534   -1.6742   -0.5378 C   0  0  0  0  0  0  0  0  0  0  0  0
    1.5184    1.2674   -1.7627 H   0  0  0  0  0  0  0  0  0  0  0  0
   -0.4796   -0.6238    1.7468 H   0  0  0  0  0  0  0  0  0  0  0  0
   -1.8984    1.8333   -1.5128 H   0  0  0  0  0  0  0  0  0  0  0  0
   -2.4765   -2.0206    1.5601 H   0  0  0  0  0  0  0  0  0  0  0  0
   -3.8965    0.4342   -1.6933 H   0  0  0  0  0  0  0  0  0  0  0  0
    3.3490   -0.5956   -2.3857 H   0  0  0  0  0  0  0  0  0  0  0  0
    4.6168   -2.4178   -0.7118 H   0  0  0  0  0  0  0  0  0  0  0  0
  1 14  1  0  0  0  0
  2  3  2  0  0  0  0
  2  4  2  0  0  0  0
  2  6  1  0  0  0  0
  2  8  1  0  0  0  0
  5  7  1  0  0  0  0
  5 16  1  0  0  0  0
  6 11  1  0  0  0  0
  6 17  1  0  0  0  0
  7 11  2  0  0  0  0
  8  9  2  0  0  0  0
  8 10  1  0  0  0  0
  9 12  1  0  0  0  0
  9 18  1  0  0  0  0
 10 13  2  0  0  0  0
 10 19  1  0  0  0  0
 11 15  1  0  0  0  0
 12 14  2  0  0  0  0
 12 20  1  0  0  0  0
 13 14  1  0  0  0  0
 13 21  1  0  0  0  0
 15 16  2  0  0  0  0
 15 22  1  0  0  0  0
 16 23  1  0  0  0  0
M  END
> <PUBCHEM_COMPOUND_CID>
6470079

> <PUBCHEM_CONFORMER_RMSD>
0.6

> <PUBCHEM_CONFORMER_DIVERSEORDER>
1
7
2
6
4
8
3
5

> <PUBCHEM_MMFF94_PARTIAL_CHARGES>
23
1 -0.11
10 -0.15
11 0.43
12 -0.15
13 -0.15
14 0.11
15 -0.15
16 -0.01
17 0.42
18 0.15
19 0.15
2 1.45
20 0.15
21 0.15
22 0.15
23 0.15
3 -0.65
4 -0.65
5 -0.02
6 -0.7
7 -0.41
8 -0.01
9 -0.15

> <PUBCHEM_EFFECTIVE_ROTOR_COUNT>
3

> <PUBCHEM_PHARMACOPHORE_FEATURES>
7
1 1 hydrophobe
1 3 acceptor
1 4 acceptor
1 6 donor
1 7 acceptor
5 5 7 11 15 16 rings
6 8 9 10 12 13 14 rings

> <PUBCHEM_HEAVY_ATOM_COUNT>
16

> <PUBCHEM_ATOM_DEF_STEREO_COUNT>
0

> <PUBCHEM_ATOM_UDEF_STEREO_COUNT>
0

> <PUBCHEM_BOND_DEF_STEREO_COUNT>
0

> <PUBCHEM_BOND_UDEF_STEREO_COUNT>
0

> <PUBCHEM_ISOTOPIC_ATOM_COUNT>
0

> <PUBCHEM_COMPONENT_COUNT>
1

> <PUBCHEM_CACTVS_TAUTO_COUNT>
2

> <PUBCHEM_CONFORMER_ID>
0062B9BF00000001

> <PUBCHEM_MMFF94_ENERGY>
15.7354

> <PUBCHEM_FEATURE_SELFOVERLAP>
35.542

> <PUBCHEM_SHAPE_FINGERPRINT>
10618630 7 18272093760077325334
11127187 94 18260269607737229079
122479 349 9727631704763627327
12251169 10 13326854417932502890
12363563 72 18412831269675589238
12824470 246 18412831265570331203
13296908 3 18413105052481696212
13533116 47 18056202616898563555
13955234 65 17981048836386129561
14123255 52 8214139642414896567
1798214 55 8790885176819978566
18186145 218 13262689105800786542
19765921 60 11314305092020146589
20281475 54 18412552002327645869
20361792 2 18272373065852997444
20645477 70 18194400215807463423
20671657 53 18410859866775176489
20871999 31 18041001726139915103
21296965 67 18413672413366640909
21452121 199 18336259124065400724
21524375 3 8070022234009805512
23403322 49 18337674109504486598
23526113 38 18115027518821558849
23557571 272 18335690659363311944
23559900 14 18265602192451661880
25 1 12251902568680438908
27216 239 9799105445131775127
3082319 5 16950569861033301062
31174 14 17988075733209745337
3286 77 18201157754131384151
394222 165 14833859533634569787
4463277 69 18200589323794639623
465052 167 18270410515603700239
7097593 13 12895072847783731668
7364860 26 18194683906475842585
76465 3 18340762732535991671
81228 2 18055078653272956672
94968 8 18337956787013783854

> <PUBCHEM_SHAPE_MULTIPOLES>
311.49
7.79
2.36
1.2
2.54
0.99
-0.11
-7
1.5
-0.42
-0.02
-0.29
0.05
0.42

> <PUBCHEM_SHAPE_SELFOVERLAP>
635.825

> <PUBCHEM_SHAPE_VOLUME>
183.9

> <PUBCHEM_COORDINATE_TYPE>
2
5
10

$$$$
