2730383
  -OEChem-05112508213D

 30 31  0     0  0  0  0  0  0999 V2000
    1.2535    3.1662    0.0770 S   0  0  0  0  0  0  0  0  0  0  0  0
    4.3622   -0.0589    0.2962 O   0  0  0  0  0  0  0  0  0  0  0  0
   -1.0100    1.8107   -0.0298 N   0  0  0  0  0  0  0  0  0  0  0  0
    0.9113    0.4432    0.0106 N   0  0  0  0  0  0  0  0  0  0  0  0
    3.2408    0.7489    0.4410 N   0  0  0  0  0  0  0  0  0  0  0  0
   -2.0055    0.8336   -0.0035 C   0  0  0  0  0  0  0  0  0  0  0  0
   -3.9962   -1.1202    0.0490 C   0  0  0  0  0  0  0  0  0  0  0  0
   -3.2185    1.0561   -0.6553 C   0  0  0  0  0  0  0  0  0  0  0  0
   -1.7879   -0.3658    0.6746 C   0  0  0  0  0  0  0  0  0  0  0  0
   -4.2137    0.0792   -0.6291 C   0  0  0  0  0  0  0  0  0  0  0  0
   -2.7833   -1.3426    0.7008 C   0  0  0  0  0  0  0  0  0  0  0  0
    2.2528   -0.0144    0.0249 C   0  0  0  0  0  0  0  0  0  0  0  0
    0.3886    1.7233   -0.0257 C   0  0  0  0  0  0  0  0  0  0  0  0
    2.6283   -1.2809   -0.3907 C   0  0  0  0  0  0  0  0  0  0  0  0
    3.9847   -1.2649   -0.1999 C   0  0  0  0  0  0  0  0  0  0  0  0
   -5.0597   -2.1650    0.0768 C   0  0  0  0  0  0  0  0  0  0  0  0
    5.0528   -2.2485   -0.4169 C   0  0  0  0  0  0  0  0  0  0  0  0
   -3.4004    1.9858   -1.1886 H   0  0  0  0  0  0  0  0  0  0  0  0
   -0.9049   -0.5525    1.2772 H   0  0  0  0  0  0  0  0  0  0  0  0
   -5.1536    0.2636   -1.1426 H   0  0  0  0  0  0  0  0  0  0  0  0
   -2.6097   -2.2655    1.2480 H   0  0  0  0  0  0  0  0  0  0  0  0
   -1.3523    2.7483   -0.2303 H   0  0  0  0  0  0  0  0  0  0  0  0
    0.2918   -0.2955   -0.3036 H   0  0  0  0  0  0  0  0  0  0  0  0
    2.0278   -2.0936   -0.7721 H   0  0  0  0  0  0  0  0  0  0  0  0
   -5.0250   -2.7388    1.0092 H   0  0  0  0  0  0  0  0  0  0  0  0
   -6.0570   -1.7166    0.0141 H   0  0  0  0  0  0  0  0  0  0  0  0
   -4.9319   -2.8536   -0.7643 H   0  0  0  0  0  0  0  0  0  0  0  0
    5.5660   -2.4730    0.5232 H   0  0  0  0  0  0  0  0  0  0  0  0
    4.6521   -3.1854   -0.8163 H   0  0  0  0  0  0  0  0  0  0  0  0
    5.7903   -1.8649   -1.1286 H   0  0  0  0  0  0  0  0  0  0  0  0
  1 13  2  0  0  0  0
  2  5  1  0  0  0  0
  2 15  1  0  0  0  0
  3  6  1  0  0  0  0
  3 13  1  0  0  0  0
  3 22  1  0  0  0  0
  4 12  1  0  0  0  0
  4 13  1  0  0  0  0
  4 23  1  0  0  0  0
  5 12  2  0  0  0  0
  6  8  2  0  0  0  0
  6  9  1  0  0  0  0
  7 10  2  0  0  0  0
  7 11  1  0  0  0  0
  7 16  1  0  0  0  0
  8 10  1  0  0  0  0
  8 18  1  0  0  0  0
  9 11  2  0  0  0  0
  9 19  1  0  0  0  0
 10 20  1  0  0  0  0
 11 21  1  0  0  0  0
 12 14  1  0  0  0  0
 14 15  2  0  0  0  0
 14 24  1  0  0  0  0
 15 17  1  0  0  0  0
 16 25  1  0  0  0  0
 16 26  1  0  0  0  0
 16 27  1  0  0  0  0
 17 28  1  0  0  0  0
 17 29  1  0  0  0  0
 17 30  1  0  0  0  0
M  END
> <PUBCHEM_COMPOUND_CID>
2730383

> <PUBCHEM_CONFORMER_RMSD>
0.6

> <PUBCHEM_CONFORMER_DIVERSEORDER>
4
9
11
8
6
3
18
15
12
16
7
13
10
17
5
14
2
1

> <PUBCHEM_MMFF94_PARTIAL_CHARGES>
24
1 -0.38
10 -0.15
11 -0.15
12 0.35
13 0.5
14 -0.15
15 -0.04
16 0.14
17 0.18
18 0.15
19 0.15
2 -0.02
20 0.15
21 0.15
22 0.37
23 0.37
24 0.15
3 -0.55
4 -0.49
5 -0.41
6 0.12
7 -0.14
8 -0.15
9 -0.15

> <PUBCHEM_EFFECTIVE_ROTOR_COUNT>
4

> <PUBCHEM_PHARMACOPHORE_FEATURES>
6
1 1 acceptor
1 3 donor
1 4 donor
3 4 5 12 cation
5 2 5 12 14 15 rings
6 6 7 8 9 10 11 rings

> <PUBCHEM_HEAVY_ATOM_COUNT>
17

> <PUBCHEM_ATOM_DEF_STEREO_COUNT>
0

> <PUBCHEM_ATOM_UDEF_STEREO_COUNT>
0

> <PUBCHEM_BOND_DEF_STEREO_COUNT>
0

> <PUBCHEM_BOND_UDEF_STEREO_COUNT>
0

> <PUBCHEM_ISOTOPIC_ATOM_COUNT>
0

> <PUBCHEM_COMPONENT_COUNT>
1

> <PUBCHEM_CACTVS_TAUTO_COUNT>
5

> <PUBCHEM_CONFORMER_ID>
0029A98F00000004

> <PUBCHEM_MMFF94_ENERGY>
55.1049

> <PUBCHEM_FEATURE_SELFOVERLAP>
30.484

> <PUBCHEM_SHAPE_FINGERPRINT>
11458722 379 18187929430442108819
11806522 49 18408603694917197804
12032990 46 18411982438362011036
12363563 72 18411146813698536366
12596602 18 14404603412218513334
13533116 47 18199189680089303611
13544653 18 18410299103176477632
13955234 65 17982734370236540913
14123255 352 9439400224636820571
14866123 147 18053103917710161121
15196674 1 18410293609686394254
15352361 1 18410856546855393838
17870717 6 18260834748182260071
193927 3 18060146401212518366
200 152 17988638597458804343
20261772 1 17917708019877285462
20281475 54 18410582785613741917
20374829 77 18335979779181225538
20403669 9 18412831261096476959
20645477 70 18263357169695514385
20671657 53 18411705395617814329
20871999 31 18186803534782526812
221490 88 18263368147220479400
2215653 11 18410283710498888445
23402539 116 18340201882404378806
23403322 49 18409449159203002679
23557571 272 18127693717165474684
23559900 14 18410283714177151136
27216 239 10375576110562316653
2871803 45 18334010566925572354
3004659 81 18113337475461617646
3421961 26 18341049726076042760
38570 142 13972531730335935298
4416823 128 18409731776640845165
4921388 177 16081665442912500795
5104073 3 18201433619880742114
7364860 26 18195245739679848712
9709674 26 18262800808200917235

> <PUBCHEM_SHAPE_MULTIPOLES>
332.89
10.67
2.82
0.75
1.39
1.28
0
-8.74
-0.91
1.05
-0.05
-0.22
-0.04
0.88

> <PUBCHEM_SHAPE_SELFOVERLAP>
691.42

> <PUBCHEM_SHAPE_VOLUME>
191.2

> <PUBCHEM_COORDINATE_TYPE>
2
5
10

$$$$
