2813928
  -OEChem-05112508223D

 42 43  0     0  0  0  0  0  0999 V2000
    2.8194    1.9753    0.0756 S   0  0  0  0  0  0  0  0  0  0  0  0
   -3.7725   -0.3324   -1.1644 O   0  0  0  0  0  0  0  0  0  0  0  0
    2.7376    2.4440   -1.2945 O   0  0  0  0  0  0  0  0  0  0  0  0
    3.5054    2.7623    1.0821 O   0  0  0  0  0  0  0  0  0  0  0  0
    0.3108    0.9159   -1.3794 O   0  0  0  0  0  0  0  0  0  0  0  0
   -2.4485    0.0889   -1.1455 N   0  0  0  0  0  0  0  0  0  0  0  0
   -0.9828    0.8717    0.5703 N   0  0  0  0  0  0  0  0  0  0  0  0
    1.2516    1.5862    0.6365 N   0  0  0  0  0  0  0  0  0  0  0  0
   -5.6840   -0.6707    0.2540 C   0  0  0  0  0  0  0  0  0  0  0  0
   -4.2081   -0.2372    0.0822 C   0  0  0  0  0  0  0  0  0  0  0  0
   -6.5163    0.5088    0.8022 C   0  0  0  0  0  0  0  0  0  0  0  0
   -5.7704   -1.8593    1.2359 C   0  0  0  0  0  0  0  0  0  0  0  0
   -6.3462   -1.1213   -1.0666 C   0  0  0  0  0  0  0  0  0  0  0  0
   -3.3257    0.2038    0.9532 C   0  0  0  0  0  0  0  0  0  0  0  0
   -2.2042    0.4040    0.1298 C   0  0  0  0  0  0  0  0  0  0  0  0
    3.5811    0.3804    0.0671 C   0  0  0  0  0  0  0  0  0  0  0  0
    0.1746    1.0976   -0.1758 C   0  0  0  0  0  0  0  0  0  0  0  0
    3.5063   -0.3977   -1.0754 C   0  0  0  0  0  0  0  0  0  0  0  0
    4.2380   -0.0616    1.2026 C   0  0  0  0  0  0  0  0  0  0  0  0
    4.7730   -2.1180    0.0526 C   0  0  0  0  0  0  0  0  0  0  0  0
    4.1068   -1.6566   -1.0826 C   0  0  0  0  0  0  0  0  0  0  0  0
    4.8386   -1.3206    1.1952 C   0  0  0  0  0  0  0  0  0  0  0  0
    5.4157   -3.4639    0.0450 C   0  0  0  0  0  0  0  0  0  0  0  0
   -6.4754    1.3694    0.1241 H   0  0  0  0  0  0  0  0  0  0  0  0
   -6.1425    0.8419    1.7774 H   0  0  0  0  0  0  0  0  0  0  0  0
   -7.5684    0.2298    0.9302 H   0  0  0  0  0  0  0  0  0  0  0  0
   -5.1891   -2.7146    0.8720 H   0  0  0  0  0  0  0  0  0  0  0  0
   -6.8064   -2.1891    1.3736 H   0  0  0  0  0  0  0  0  0  0  0  0
   -5.3758   -1.5910    2.2228 H   0  0  0  0  0  0  0  0  0  0  0  0
   -5.8184   -1.9766   -1.5047 H   0  0  0  0  0  0  0  0  0  0  0  0
   -6.3412   -0.3149   -1.8094 H   0  0  0  0  0  0  0  0  0  0  0  0
   -7.3890   -1.4207   -0.9101 H   0  0  0  0  0  0  0  0  0  0  0  0
   -3.4273    0.3700    2.0151 H   0  0  0  0  0  0  0  0  0  0  0  0
   -0.9318    1.0726    1.5658 H   0  0  0  0  0  0  0  0  0  0  0  0
    1.0594    1.7558    1.6318 H   0  0  0  0  0  0  0  0  0  0  0  0
    2.9900   -0.0579   -1.9676 H   0  0  0  0  0  0  0  0  0  0  0  0
    4.2938    0.5402    2.1043 H   0  0  0  0  0  0  0  0  0  0  0  0
    4.0498   -2.2682   -1.9792 H   0  0  0  0  0  0  0  0  0  0  0  0
    5.3549   -1.6692    2.0858 H   0  0  0  0  0  0  0  0  0  0  0  0
    5.4075   -3.9112    1.0448 H   0  0  0  0  0  0  0  0  0  0  0  0
    6.4529   -3.3828   -0.2947 H   0  0  0  0  0  0  0  0  0  0  0  0
    4.8819   -4.1530   -0.6182 H   0  0  0  0  0  0  0  0  0  0  0  0
  1  3  2  0  0  0  0
  1  4  2  0  0  0  0
  1  8  1  0  0  0  0
  1 16  1  0  0  0  0
  2  6  1  0  0  0  0
  2 10  1  0  0  0  0
  5 17  2  0  0  0  0
  6 15  2  0  0  0  0
  7 15  1  0  0  0  0
  7 17  1  0  0  0  0
  7 34  1  0  0  0  0
  8 17  1  0  0  0  0
  8 35  1  0  0  0  0
  9 10  1  0  0  0  0
  9 11  1  0  0  0  0
  9 12  1  0  0  0  0
  9 13  1  0  0  0  0
 10 14  2  0  0  0  0
 11 24  1  0  0  0  0
 11 25  1  0  0  0  0
 11 26  1  0  0  0  0
 12 27  1  0  0  0  0
 12 28  1  0  0  0  0
 12 29  1  0  0  0  0
 13 30  1  0  0  0  0
 13 31  1  0  0  0  0
 13 32  1  0  0  0  0
 14 15  1  0  0  0  0
 14 33  1  0  0  0  0
 16 18  2  0  0  0  0
 16 19  1  0  0  0  0
 18 21  1  0  0  0  0
 18 36  1  0  0  0  0
 19 22  2  0  0  0  0
 19 37  1  0  0  0  0
 20 21  2  0  0  0  0
 20 22  1  0  0  0  0
 20 23  1  0  0  0  0
 21 38  1  0  0  0  0
 22 39  1  0  0  0  0
 23 40  1  0  0  0  0
 23 41  1  0  0  0  0
 23 42  1  0  0  0  0
M  END
> <PUBCHEM_COMPOUND_CID>
2813928

> <PUBCHEM_CONFORMER_RMSD>
0.8

> <PUBCHEM_CONFORMER_DIVERSEORDER>
1
32
43
39
6
11
37
38
49
54
7
44
35
41
45
28
47
46
55
29
14
12
42
16
22
51
30
50
4
21
31
48
33
5
3
36
52
8
34
53
27
18
10
15
23
13
9
17
19
24
25
20
26
40
2

> <PUBCHEM_MMFF94_PARTIAL_CHARGES>
27
1 1.45
10 -0.04
14 -0.15
15 0.35
16 -0.01
17 0.87
18 -0.15
19 -0.15
2 -0.02
20 -0.14
21 -0.15
22 -0.15
23 0.14
3 -0.65
33 0.15
34 0.37
35 0.42
36 0.15
37 0.15
38 0.15
39 0.15
4 -0.65
5 -0.57
6 -0.41
7 -0.49
8 -0.79
9 0.18

> <PUBCHEM_EFFECTIVE_ROTOR_COUNT>
6

> <PUBCHEM_PHARMACOPHORE_FEATURES>
8
1 3 acceptor
1 4 acceptor
1 5 acceptor
1 7 donor
1 8 donor
4 9 11 12 13 hydrophobe
5 2 6 10 14 15 rings
6 16 18 19 20 21 22 rings

> <PUBCHEM_HEAVY_ATOM_COUNT>
23

> <PUBCHEM_ATOM_DEF_STEREO_COUNT>
0

> <PUBCHEM_ATOM_UDEF_STEREO_COUNT>
0

> <PUBCHEM_BOND_DEF_STEREO_COUNT>
0

> <PUBCHEM_BOND_UDEF_STEREO_COUNT>
0

> <PUBCHEM_ISOTOPIC_ATOM_COUNT>
0

> <PUBCHEM_COMPONENT_COUNT>
1

> <PUBCHEM_CACTVS_TAUTO_COUNT>
5

> <PUBCHEM_CONFORMER_ID>
002AEFE800000001

> <PUBCHEM_MMFF94_ENERGY>
35.1168

> <PUBCHEM_FEATURE_SELFOVERLAP>
40.657

> <PUBCHEM_SHAPE_FINGERPRINT>
10498660 4 8141786319041917670
10670039 82 13551462627601033350
11858739 19 18335135401986162309
12107183 9 17984432845086853785
12596602 18 16630522942705228627
12616971 3 17988637510742369167
12633257 1 15338535182079492306
12821665 9 8573842673199158089
13073987 5 18343024428059802625
13533116 47 18413389855989606680
13551218 46 18343019986921070023
1361 87 17895779338382436474
13782708 43 18187085092165664243
13911852 28 18267584611389560326
13914758 101 18343298142631690469
13955234 65 18269835483727842848
14123256 34 18339930307850070630
14211702 104 18189621725583900395
14251740 57 18334297595247387618
14251764 30 18188772734686528090
14347424 109 18273214183843285425
14528608 73 11314030179710999675
14565420 104 17772738619184454784
15183329 4 14996280293401785311
15210252 30 9006762203861218990
15250474 111 17773301534202832295
15575132 122 11025787692279748487
15961568 22 10952048952861867706
17844677 252 17894347796218723717
17857418 61 18202844370545422143
1813 80 18260269629228364228
1979834 28 17131838620927852726
20028762 73 18202280282057357758
20397935 70 18343585161356073798
20567600 234 12679171722340804971
20645477 70 18260267469007182264
21344244 78 17703500043767922440
21641784 216 14129330772389899063
21682296 61 18409451354295534699
220451 1 18200604721336681069
22061861 79 18186796998396079823
2215653 11 17749105599975745679
22224240 67 18200020876794925376
2303208 19 17530970211339512601
23081809 10 18272938258649843533
23559900 14 17676776460424348529
239999 70 17895471531314070272
25122255 55 18114752620046745323
270888 7 9654988067340464378
2916195 48 11600006540220532147
3004659 81 18201728361521156876
3421961 26 18412542107345689632
345986 75 17917427567255233114
3472631 163 8213844995211261338
34797466 226 16370734776464040189
3680242 22 18201723942079235767
3886686 26 16551738304383866619
4072396 5 16845576404996973109
44317340 157 9151184159864557433
46194498 28 17603867832060926548
465052 167 18411987948884420214
5104073 3 18059585693532725897
531348 171 18342166758056626279
56633871 153 18059286548781634214
5718773 13 18190173487179281066
6025842 7 18262240040455268988
7970288 3 18265615386312614130
8509985 295 17203891876769054505
8988823 20 18271522091245704752
960060 61 16588030112631309062
9841814 1 17131838715322246136

> <PUBCHEM_SHAPE_MULTIPOLES>
438.76
17.38
2.73
1.32
18.54
0.5
-0.11
11.19
2.2
-5.29
0.17
0.02
0.01
0.16

> <PUBCHEM_SHAPE_SELFOVERLAP>
908.706

> <PUBCHEM_SHAPE_VOLUME>
253.8

> <PUBCHEM_COORDINATE_TYPE>
2
5
10

$$$$
