99331
  -OEChem-05112508103D

 27 28  0     0  0  0  0  0  0999 V2000
    6.1597    0.5261    0.0028 F   0  0  0  0  0  0  0  0  0  0  0  0
   -4.5160    1.0991   -0.0006 O   0  0  0  0  0  0  0  0  0  0  0  0
   -0.2668    1.2883   -0.0015 O   0  0  0  0  0  0  0  0  0  0  0  0
    0.7969   -0.7993   -0.0010 N   0  0  0  0  0  0  0  0  0  0  0  0
   -1.5105   -0.6923   -0.0004 N   0  0  0  0  0  0  0  0  0  0  0  0
   -3.1268    1.0664   -0.0014 N   0  0  0  0  0  0  0  0  0  0  0  0
    2.1513   -0.4646   -0.0015 C   0  0  0  0  0  0  0  0  0  0  0  0
   -2.8444   -0.2205   -0.0001 C   0  0  0  0  0  0  0  0  0  0  0  0
   -3.9494   -1.0573    0.0013 C   0  0  0  0  0  0  0  0  0  0  0  0
   -4.9942   -0.1715    0.0011 C   0  0  0  0  0  0  0  0  0  0  0  0
    3.1181   -1.4699   -0.0014 C   0  0  0  0  0  0  0  0  0  0  0  0
    2.5385    0.8755   -0.0003 C   0  0  0  0  0  0  0  0  0  0  0  0
   -0.3267    0.0629   -0.0010 C   0  0  0  0  0  0  0  0  0  0  0  0
    4.4724   -1.1352   -0.0001 C   0  0  0  0  0  0  0  0  0  0  0  0
    3.8927    1.2102    0.0009 C   0  0  0  0  0  0  0  0  0  0  0  0
    4.8596    0.2049    0.0010 C   0  0  0  0  0  0  0  0  0  0  0  0
   -6.4545   -0.3228    0.0022 C   0  0  0  0  0  0  0  0  0  0  0  0
    0.5926   -1.7956   -0.0010 H   0  0  0  0  0  0  0  0  0  0  0  0
   -4.0027   -2.1361    0.0025 H   0  0  0  0  0  0  0  0  0  0  0  0
   -1.4202   -1.7049    0.0005 H   0  0  0  0  0  0  0  0  0  0  0  0
    2.8309   -2.5183   -0.0019 H   0  0  0  0  0  0  0  0  0  0  0  0
    1.8531    1.7107    0.0001 H   0  0  0  0  0  0  0  0  0  0  0  0
    5.2255   -1.9176    0.0003 H   0  0  0  0  0  0  0  0  0  0  0  0
    4.1960    2.2531    0.0020 H   0  0  0  0  0  0  0  0  0  0  0  0
   -6.7424   -1.3787    0.0033 H   0  0  0  0  0  0  0  0  0  0  0  0
   -6.8895    0.1478    0.8892 H   0  0  0  0  0  0  0  0  0  0  0  0
   -6.8907    0.1463   -0.8852 H   0  0  0  0  0  0  0  0  0  0  0  0
  1 16  1  0  0  0  0
  2  6  1  0  0  0  0
  2 10  1  0  0  0  0
  3 13  2  0  0  0  0
  4  7  1  0  0  0  0
  4 13  1  0  0  0  0
  4 18  1  0  0  0  0
  5  8  1  0  0  0  0
  5 13  1  0  0  0  0
  5 20  1  0  0  0  0
  6  8  2  0  0  0  0
  7 11  2  0  0  0  0
  7 12  1  0  0  0  0
  8  9  1  0  0  0  0
  9 10  2  0  0  0  0
  9 19  1  0  0  0  0
 10 17  1  0  0  0  0
 11 14  1  0  0  0  0
 11 21  1  0  0  0  0
 12 15  2  0  0  0  0
 12 22  1  0  0  0  0
 14 16  2  0  0  0  0
 14 23  1  0  0  0  0
 15 16  1  0  0  0  0
 15 24  1  0  0  0  0
 17 25  1  0  0  0  0
 17 26  1  0  0  0  0
 17 27  1  0  0  0  0
M  END
> <PUBCHEM_COMPOUND_CID>
99331

> <PUBCHEM_CONFORMER_RMSD>
0.6

> <PUBCHEM_CONFORMER_DIVERSEORDER>
1
6
5
3
7
9
4
8
2

> <PUBCHEM_MMFF94_PARTIAL_CHARGES>
24
1 -0.19
10 -0.04
11 -0.15
12 -0.15
13 0.69
14 -0.15
15 -0.15
16 0.19
17 0.18
18 0.37
19 0.15
2 -0.02
20 0.37
21 0.15
22 0.15
23 0.15
24 0.15
3 -0.57
4 -0.55
5 -0.49
6 -0.41
7 0.12
8 0.35
9 -0.15

> <PUBCHEM_EFFECTIVE_ROTOR_COUNT>
4

> <PUBCHEM_PHARMACOPHORE_FEATURES>
5
1 3 acceptor
1 4 donor
1 5 donor
5 2 6 8 9 10 rings
6 7 11 12 14 15 16 rings

> <PUBCHEM_HEAVY_ATOM_COUNT>
17

> <PUBCHEM_ATOM_DEF_STEREO_COUNT>
0

> <PUBCHEM_ATOM_UDEF_STEREO_COUNT>
0

> <PUBCHEM_BOND_DEF_STEREO_COUNT>
0

> <PUBCHEM_BOND_UDEF_STEREO_COUNT>
0

> <PUBCHEM_ISOTOPIC_ATOM_COUNT>
0

> <PUBCHEM_COMPONENT_COUNT>
1

> <PUBCHEM_CACTVS_TAUTO_COUNT>
5

> <PUBCHEM_CONFORMER_ID>
0001840300000001

> <PUBCHEM_MMFF94_ENERGY>
35.7649

> <PUBCHEM_FEATURE_SELFOVERLAP>
25.42

> <PUBCHEM_SHAPE_FINGERPRINT>
10354089 29 18411136944264493286
10968037 39 18410012152596441127
11287383 113 18261395571889304451
12107183 9 17619632384576348787
12236239 1 17988926660535603963
13073987 5 18338517443507144065
13167372 99 18272093738697759513
13167823 11 18412542115434691591
13533116 47 14333139524584315182
14123238 8 18334575741539865823
1420 363 18113905965949101339
14251718 22 18411418423235620851
15196674 1 18410575046013673989
15242433 33 18413388743514130950
17834072 33 18343017813366684463
17834076 25 18409729573111502318
17844677 252 18411426085309895597
19489759 90 15647049357441061653
200 152 18202281394289323737
20645477 70 18341051809620750822
21267235 1 18411708668335148302
220451 1 16702302351879849103
23402539 116 18341607135505587711
23402655 69 18342738516297043558
23536379 177 18412263917654768763
23557571 272 17603863373505013045
23559900 14 18339637944603315329
26918003 58 18186522119972106202
300161 21 18342450452350059263
3004659 81 18335140848237165962
33824 294 18335420136959640970
34797466 226 17274829089985966452
3545911 37 18410856572529985702
4073 2 18040722510342915466
4214541 1 18410855430485650213
42788 4 18410575084847766691
4463277 17 18410575072511588465
5104073 3 18410855412888862185
522135 26 18410856551661940578
5374978 207 18410849954507596368
542803 24 18411419509619604155
7495541 125 17632572807580495299
77779 3 18411138030442949667

> <PUBCHEM_SHAPE_MULTIPOLES>
315.9
14.83
1.31
0.58
6.71
0.01
0
0.02
-0.01
-0.63
0
-0.01
-0.02
0

> <PUBCHEM_SHAPE_SELFOVERLAP>
673.477

> <PUBCHEM_SHAPE_VOLUME>
175.8

> <PUBCHEM_COORDINATE_TYPE>
2
5
10

$$$$
