705643
  -OEChem-05112508123D

 29 30  0     0  0  0  0  0  0999 V2000
    0.2401   -2.2095   -0.0844 S   0  0  0  0  0  0  0  0  0  0  0  0
    0.9119   -3.2162    0.7288 O   0  0  0  0  0  0  0  0  0  0  0  0
   -0.0836   -2.5276   -1.4698 O   0  0  0  0  0  0  0  0  0  0  0  0
   -2.6345    0.9879   -0.9789 O   0  0  0  0  0  0  0  0  0  0  0  0
   -1.1891   -1.7196    0.7437 N   0  0  0  0  0  0  0  0  0  0  0  0
   -1.9325   -0.2112   -0.9777 N   0  0  0  0  0  0  0  0  0  0  0  0
    1.2184   -0.7637   -0.0568 C   0  0  0  0  0  0  0  0  0  0  0  0
    2.0968   -0.5358    1.0025 C   0  0  0  0  0  0  0  0  0  0  0  0
    1.1217    0.1634   -1.0944 C   0  0  0  0  0  0  0  0  0  0  0  0
    2.7819    1.5464   -0.0134 C   0  0  0  0  0  0  0  0  0  0  0  0
   -1.8531   -0.5240    0.2987 C   0  0  0  0  0  0  0  0  0  0  0  0
    2.8785    0.6194    1.0242 C   0  0  0  0  0  0  0  0  0  0  0  0
    1.9035    1.3185   -1.0728 C   0  0  0  0  0  0  0  0  0  0  0  0
   -2.4531    0.3809    1.1588 C   0  0  0  0  0  0  0  0  0  0  0  0
   -2.9390    1.3302    0.2991 C   0  0  0  0  0  0  0  0  0  0  0  0
    3.6185    2.7807    0.0089 C   0  0  0  0  0  0  0  0  0  0  0  0
   -3.6863    2.5801    0.4835 C   0  0  0  0  0  0  0  0  0  0  0  0
   -1.2303   -1.9106    1.7533 H   0  0  0  0  0  0  0  0  0  0  0  0
    2.1838   -1.2403    1.8248 H   0  0  0  0  0  0  0  0  0  0  0  0
    0.4734   -0.0016   -1.9491 H   0  0  0  0  0  0  0  0  0  0  0  0
    3.5594    0.7856    1.8547 H   0  0  0  0  0  0  0  0  0  0  0  0
    1.8260    2.0290   -1.8916 H   0  0  0  0  0  0  0  0  0  0  0  0
   -2.5320    0.3669    2.2357 H   0  0  0  0  0  0  0  0  0  0  0  0
    3.1090    3.6123   -0.4899 H   0  0  0  0  0  0  0  0  0  0  0  0
    3.8234    3.1008    1.0362 H   0  0  0  0  0  0  0  0  0  0  0  0
    4.5711    2.5980   -0.4981 H   0  0  0  0  0  0  0  0  0  0  0  0
   -3.8853    2.7689    1.5430 H   0  0  0  0  0  0  0  0  0  0  0  0
   -3.1196    3.4290    0.0889 H   0  0  0  0  0  0  0  0  0  0  0  0
   -4.6469    2.5349   -0.0387 H   0  0  0  0  0  0  0  0  0  0  0  0
  1  2  2  0  0  0  0
  1  3  2  0  0  0  0
  1  5  1  0  0  0  0
  1  7  1  0  0  0  0
  4  6  1  0  0  0  0
  4 15  1  0  0  0  0
  5 11  1  0  0  0  0
  5 18  1  0  0  0  0
  6 11  2  0  0  0  0
  7  8  2  0  0  0  0
  7  9  1  0  0  0  0
  8 12  1  0  0  0  0
  8 19  1  0  0  0  0
  9 13  2  0  0  0  0
  9 20  1  0  0  0  0
 10 12  2  0  0  0  0
 10 13  1  0  0  0  0
 10 16  1  0  0  0  0
 11 14  1  0  0  0  0
 12 21  1  0  0  0  0
 13 22  1  0  0  0  0
 14 15  2  0  0  0  0
 14 23  1  0  0  0  0
 15 17  1  0  0  0  0
 16 24  1  0  0  0  0
 16 25  1  0  0  0  0
 16 26  1  0  0  0  0
 17 27  1  0  0  0  0
 17 28  1  0  0  0  0
 17 29  1  0  0  0  0
M  END
> <PUBCHEM_COMPOUND_CID>
705643

> <PUBCHEM_CONFORMER_RMSD>
0.6

> <PUBCHEM_CONFORMER_DIVERSEORDER>
2
3
6
7
5
9
16
13
4
11
1
10
15
14
12
8

> <PUBCHEM_MMFF94_PARTIAL_CHARGES>
23
1 1.45
10 -0.14
11 0.43
12 -0.15
13 -0.15
14 -0.15
15 -0.04
16 0.14
17 0.18
18 0.42
19 0.15
2 -0.65
20 0.15
21 0.15
22 0.15
23 0.15
3 -0.65
4 -0.02
5 -0.7
6 -0.41
7 -0.01
8 -0.15
9 -0.15

> <PUBCHEM_EFFECTIVE_ROTOR_COUNT>
3

> <PUBCHEM_PHARMACOPHORE_FEATURES>
6
1 2 acceptor
1 3 acceptor
1 5 donor
1 6 acceptor
5 4 6 11 14 15 rings
6 7 8 9 10 12 13 rings

> <PUBCHEM_HEAVY_ATOM_COUNT>
17

> <PUBCHEM_ATOM_DEF_STEREO_COUNT>
0

> <PUBCHEM_ATOM_UDEF_STEREO_COUNT>
0

> <PUBCHEM_BOND_DEF_STEREO_COUNT>
0

> <PUBCHEM_BOND_UDEF_STEREO_COUNT>
0

> <PUBCHEM_ISOTOPIC_ATOM_COUNT>
0

> <PUBCHEM_COMPONENT_COUNT>
1

> <PUBCHEM_CACTVS_TAUTO_COUNT>
2

> <PUBCHEM_CONFORMER_ID>
000AC46B00000002

> <PUBCHEM_MMFF94_ENERGY>
21.4857

> <PUBCHEM_FEATURE_SELFOVERLAP>
30.466

> <PUBCHEM_SHAPE_FINGERPRINT>
11640471 11 18130494250305702261
12491281 212 18190459557485395024
13134695 92 17832137221506463151
13764800 53 18268160931359422329
14817 1 10730276083049245206
15775835 57 18337111275446396080
16945 1 18189325780239370186
18522851 12 8862663580872225993
18981168 100 18196960832016410713
20291156 8 9079119972482429840
20510252 161 18123756618917451474
20621476 13 18048026381450707781
20671657 1 18265903462268241775
21041028 32 17400645926326362539
21524375 3 18341895220415965051
21731228 192 18335142020103471736
21731516 1 8646770006029084001
21947302 44 18264776445901842003
2306618 200 17102531374780944310
23402539 116 17766560535597429814
23419403 2 15804196970667702934
305870 269 18410575059035758466
350125 39 18337686281320601091
474 4 18338510846669836561
49207404 50 18117583776652037873
5939293 188 17906171750430531297
6442390 28 18055664886470897531
6992083 37 17896587574260133052
7364860 26 18126007061505594807
81228 2 17692823995914758890

> <PUBCHEM_SHAPE_MULTIPOLES>
326.13
5.71
3.28
1.22
1.14
0.97
-0.14
-6.09
0.94
-0.37
0.07
-0.06
0.19
-0.39

> <PUBCHEM_SHAPE_SELFOVERLAP>
679.295

> <PUBCHEM_SHAPE_VOLUME>
186.4

> <PUBCHEM_COORDINATE_TYPE>
2
5
10

$$$$
